
**** 01/02/18 14:19:04 ****** PSpice 17.2.0 (March 2016) ****** ID# 0 ********

 ** Profile: "SCHEMATIC1-halfwaveSimulation"  [ F:\Orcad\POWERsupply\halfwave-PSpiceFiles\SCHEMATIC1\halfwaveSimulation.sim ] 


 ****     CIRCUIT DESCRIPTION


******************************************************************************




** Creating circuit file "halfwaveSimulation.cir" 
** WARNING: THIS AUTOMATICALLY GENERATED FILE MAY BE OVERWRITTEN BY SUBSEQUENT SIMULATIONS

*Libraries: 
* Profile Libraries :
* Local Libraries :
* From [PSPICE NETLIST] section of C:\SPB_Data\cdssetup\OrCAD_PSpice\17.2.0\PSpice.ini file:
.lib "nom.lib" 

*Analysis directives: 
.TRAN  0 1000ms 0 
.OPTIONS ADVCONV
.PROBE64 V(alias(*)) I(alias(*)) W(alias(*)) D(alias(*)) NOISE(alias(*)) 
.INC "..\SCHEMATIC1.net" 



**** INCLUDING SCHEMATIC1.net ****
* source HALFWAVE
R_R1         N00142 0  1k TC=0,0 
D_D1         N00135 N00142 D1N4148_1 
V_V1         N00135 0  AC 0
+SIN 0 12 10 0 0 0

**** RESUMING halfwaveSimulation.cir ****
.END

**** 01/02/18 14:19:04 ****** PSpice 17.2.0 (March 2016) ****** ID# 0 ********

 ** Profile: "SCHEMATIC1-halfwaveSimulation"  [ F:\Orcad\POWERsupply\halfwave-PSpiceFiles\SCHEMATIC1\halfwaveSimulation.sim ] 


 ****     Diode MODEL PARAMETERS


******************************************************************************




               D1N4148_1       
          IS    2.682000E-09 
           N    1.836        
         ISR    1.565000E-09 
         IKF     .04417      
          BV  100            
         IBV  100.000000E-06 
          RS     .5664       
          TT   11.540000E-09 
         CJO    4.000000E-12 
          VJ     .5          
           M     .3333       


**** 01/02/18 14:19:04 ****** PSpice 17.2.0 (March 2016) ****** ID# 0 ********

 ** Profile: "SCHEMATIC1-halfwaveSimulation"  [ F:\Orcad\POWERsupply\halfwave-PSpiceFiles\SCHEMATIC1\halfwaveSimulation.sim ] 


 ****     INITIAL TRANSIENT SOLUTION       TEMPERATURE =   27.000 DEG C


******************************************************************************



 NODE   VOLTAGE     NODE   VOLTAGE     NODE   VOLTAGE     NODE   VOLTAGE


(N00135)    0.0000 (N00142) 76.02E-24 




    VOLTAGE SOURCE CURRENTS
    NAME         CURRENT

    V_V1        -7.602E-26

    TOTAL POWER DISSIPATION   0.00E+00  WATTS



          JOB CONCLUDED

**** 01/02/18 14:19:04 ****** PSpice 17.2.0 (March 2016) ****** ID# 0 ********

 ** Profile: "SCHEMATIC1-halfwaveSimulation"  [ F:\Orcad\POWERsupply\halfwave-PSpiceFiles\SCHEMATIC1\halfwaveSimulation.sim ] 


 ****     JOB STATISTICS SUMMARY


******************************************************************************



  Total job time (using Solver 1)   =         .03
